CRPP
ECH
ECRH
ASTRA
ASTRA's
maketitle
thispagestyle
OMP
lstlisting
cpp
OpenMP
MPI
Alcor
Vega
TCV
CRPP
EPFL
Lallia
RLW
ECRH
poloidal
Induni
MPI
MHD
discretize
sawteeth
alti
Martigny
MagnetoHydroDynamics
ELMs
tokamaks
diffusivities
ITER
Alfv\'en
XHTML
CSS
PHP
MySQL
collisionality
ASDEX
ELMy
divertor
LCFS
Shafranov
renormalize
CXRS
H-mode
Boschung
username
Boschung
EPFL
SECTION/!
smartphone
XBoard
